powerflow/Codes/PF_Formulation/resultados_csv/19/300bus/ramos.csv
caso,script,branch_id,f_bus,t_bus,pf_pu,qf_pu,pt_pu,qt_pu,loss_p_pu,loss_q_pu
300bus.pwf,19,1,206,207,-0.15212069959925112,-0.14953170496518198,0.15498549981399867,0.1531813819510922,0.0028648002147475538,0.003649676985910233
300bus.pwf,19,2,9021,9023,0.009120886354730458,0.002691308032450121,-0.00902742133158246,-0.002610849408710611,9.346502314799832e-5,8.045862373950996e-5
300bus.pwf,19,3,1,5,4.082014446929213,1.3412855290535228,-4.065766195278988,-1.243796019152172,0.016248251650225143,0.09748950990135086
300bus.pwf,19,4,37,38,-0.25914511554779845,-0.34404030723316215,0.2605884975353308,0.3442709887706217,0.001443381987532355,0.00023068153745953168
300bus.pwf,19,5,70,528,0.2836366654633233,-0.2151377049719265,-0.2810000099996856,0.20506242834959384,0.0026366554636376716,-0.010075276622332652
300bus.pwf,19,6,25,26,0.8321808671249848,0.15351946220044466,-0.8082144089929755,-0.14176867608529553,0.02396645813200937,0.011750786115149126
300bus.pwf,19,7,41,42,-5.313634416671153,-0.9160710282307605,5.313634416671153,1.713342000983232,0.0,0.7972709727524716
300bus.pwf,19,8,231,232,5.528028187320487,-0.7287862324863462,-5.522616895908897,-0.6241703132192916,0.005411291411590469,-1.3529565457056378
300bus.pwf,19,9,201,204,-0.21346992162986445,-0.25799599604050677,0.2292530041208597,0.28128877100705735,0.01578308249099525,0.023292774966550578
300bus.pwf,19,10,119,1190,1.0039835989877985,0.31432323006144974,-1.0030000099998142,-0.2917006833378108,0.0009835889879843407,0.022622546723638948
300bus.pwf,19,11,115,122,1.736397009341257,0.6495364186597575,-1.7217753563364726,-0.5720246899673361,0.014621653004784463,0.0775117286924214
300bus.pwf,19,12,9006,9007,0.09105384144419586,0.022526951810824498,-0.0905936471899154,-0.02048464316093453,0.0004601942542804549,0.002042308649889968
300bus.pwf,19,13,145,146,-2.086335321201343,-1.241206435471187,2.1398707210958916,1.5228341636801808,0.053535399894548696,0.28162772820899384
300bus.pwf,19,14,228,231,0.02257863143218289,-0.8782662646202423,-0.020492107800631293,0.9518563480868886,0.0020865236315515956,0.0735900834666463
300bus.pwf,19,15,129,133,1.0434568444312595,-0.07072908173434835,-1.0413632242996065,0.05645043525570438,0.00209362013165304,-0.014278646478643964
300bus.pwf,19,16,189,208,0.03694166939688313,-0.061577891221248474,-0.03678652929377411,0.062024506669593374,0.00015514010310901938,0.0004466154483449003
300bus.pwf,19,17,57,58,-0.6117103923179301,0.6655754686315134,0.6444466085104703,-0.6505888101695809,0.03273621619254019,0.014986658461932478
300bus.pwf,19,18,200,210,-0.19990998594141612,0.11082936683760918,0.20393796648907186,-0.11968631683981827,0.004027980547655741,-0.008856950002209096
300bus.pwf,19,19,15,89,0.4903764515398959,-0.08737677034750743,-0.4698021287462664,0.09852816182239985,0.020574322793629474,0.011151391474892414
300bus.pwf,19,20,197,198,-0.9504624352290045,-0.7770640999693019,0.9641791016324357,0.8489994362559874,0.013716666403431166,0.07193533628668547
300bus.pwf,19,21,14,15,2.1334392893382,-1.8522477327850604,-2.031751168113764,2.0481214853285907,0.10168812122443605,0.19587375254353034
300bus.pwf,19,22,9004,9044,-0.04296443655696913,-0.014332747242906684,0.043041858846128433,0.014391218042705056,7.742228915930127e-5,5.847079979837133e-5
300bus.pwf,19,23,173,176,-0.46739775896490077,0.2991921498369543,0.534923399581042,-0.16904706411112988,0.06752564061614119,0.13014508572582442
300bus.pwf,19,24,224,226,-0.4001779145125969,-1.6285407030174337,0.40285006618479036,0.7035877959466585,0.002672151672193479,-0.9249529070707752
300bus.pwf,19,25,135,136,-2.1024249518395624,-0.30852314714633705,2.1379341489341805,0.10220422935133838,0.035509197094618195,-0.20631891779499867
300bus.pwf,19,26,13,20,1.1275235789082625,0.957754305278939,-1.1138767711718633,-0.8953114370227833,0.013646807736399147,0.06244286825615575
300bus.pwf,19,27,116,120,-2.785502440055954,-0.4474252334727512,2.8051539242531986,1.4772290352742405,0.019651484197244606,1.0298038018014894
300bus.pwf,19,28,104,322,0.024109100138960275,-0.055816322743582204,-0.02400000999981821,0.03900347355867154,0.00010909013914206511,-0.01681284918491066
300bus.pwf,19,29,37,90,-0.5714955089260386,-0.09693545440532911,0.5870168469529687,0.12201111921681426,0.01552133802693012,0.025075664811485154
300bus.pwf,19,30,127,128,-0.5440174419687598,-0.2757843495459184,0.545936949478566,0.1917406390896936,0.0019195075098061842,-0.0840437104562248
300bus.pwf,19,31,26,320,0.024760630731187595,-0.13801309653651592,-0.024000009999817197,0.12602326266519745,0.0007606207313703983,-0.011989833871318467
300bus.pwf,19,32,167,169,-1.48242656558742,-0.43872070250775014,1.4865410386843518,0.4489440065407692,0.004114473096931803,0.010223304033019076
300bus.pwf,19,33,203,211,0.24316099469612423,0.42984568681130164,-0.2409973082774411,-0.4260226989532969,0.0021636864186831417,0.0038229878580047227
300bus.pwf,19,34,123,124,-1.4184858848981767,0.2897651548344591,1.5037401714620213,-0.1435967839952088,0.0852542865638446,0.14616837083925027
300bus.pwf,19,35,24,319,1.166525803247608,-0.31450954042605894,-1.1580000099997114,0.2400191774123821,0.008525793247896596,-0.07449036301367684
300bus.pwf,19,36,99,109,0.3383739651320715,0.06554635208291776,-0.3337930779157141,-0.08084774950358348,0.00458088721635741,-0.015301397420665719
300bus.pwf,19,37,77,78,-2.6542841804001336,-1.2634013453379425,2.662677534396434,1.3064895906769636,0.00839335399630059,0.043088245339021114
300bus.pwf,19,38,20,27,0.20444162376530386,-0.16258036845098472,-0.2001173187868687,0.08588406656531972,0.004324304978435167,-0.07669630188566501
300bus.pwf,19,39,198,210,0.9686560137662185,0.6015741647372914,-0.9470686978602497,-0.5319760655918306,0.02158731590596874,0.06959809914546078
300bus.pwf,19,40,97,102,0.29854345528060633,0.08285173098975455,-0.2953162797585456,-0.0885396024976675,0.0032271755220607545,-0.005687871507912945
300bus.pwf,19,41,37,40,-0.18026073206863708,-0.28421537755402626,0.18267751188804454,0.2840005129652189,0.0024167798194074663,-0.00021486458880737302
300bus.pwf,19,42,220,238,-2.8522952689773864,-0.24946770371636728,2.865179283945864,-0.12170413314484096,0.012884014968477686,-0.37117183686120825
300bus.pwf,19,43,8,14,3.922687997548774,-0.7284814390670555,-3.733439299349188,1.2523394061203654,0.18924869819958623,0.5238579670533099
300bus.pwf,19,44,158,159,-2.5155943962413927,1.8734121113710138,2.5466780144893395,-1.7400533397935085,0.03108361824794681,0.1333587715775053
300bus.pwf,19,45,217,220,-0.15961925871299731,0.22576720951077583,0.16081693573943057,-1.0703388806542102,0.0011976770264332526,-0.8445716711434343
300bus.pwf,19,46,122,123,0.2523459564249973,-0.26793815592382725,-0.23944654402055382,0.2805767226348053,0.012899412404443478,0.012638566710978072
300bus.pwf,19,47,228,234,-0.06291950606811311,-1.8093735787656415,0.06564964710478491,1.056895237760071,0.002730141036671796,-0.7524783410055704
300bus.pwf,19,48,7,12,2.465737995662298,-2.105416732093754,-2.4556457577967374,2.1232114474563377,0.01009223786556035,0.017794715362583702
300bus.pwf,19,49,130,151,1.5750353866917906,3.014339689571512,-1.5578158933746418,-2.875799255689967,0.017219493317148782,0.1385404338815448
300bus.pwf,19,50,11,13,1.74068633898747,1.1802790504870808,-1.7075235889060154,-1.057709177242402,0.03316275008145464,0.12256987324467872
300bus.pwf,19,51,198,203,0.6690407623132326,0.5704390055719911,-0.6631610046959435,-0.5698309197301582,0.005879757617289094,0.0006080858418329171
300bus.pwf,19,52,245,246,0.2009183758716186,0.009278717656272091,-0.20034432642914818,-0.0066022578353270925,0.0005740494424704146,0.0026764598209449986
300bus.pwf,19,53,165,166,-5.522809471007269,1.0356836572350896,5.529999999999764,-0.5934661241966874,0.007190528992494727,0.44221753303840217
300bus.pwf,19,54,235,238,-2.5594924350316783,-0.9821441068335992,2.5608435438223647,0.17062108070555615,0.0013511087906863395,-0.8115230261280431
300bus.pwf,19,55,119,121,6.57054777148805,4.303809928024384,-6.57054777148805,-1.112833460406037,0.0,3.1909764676183467
300bus.pwf,19,56,63,526,1.502481432660593,-0.05920265242567391,-1.4530000099998186,0.34901072972589864,0.04948142266077449,0.28980807730022473
300bus.pwf,19,57,85,86,-1.420170173427803,-0.32248780513406144,1.434658922822809,0.2874942548710156,0.014488749395006106,-0.03499355026304585
300bus.pwf,19,58,125,126,-3.8374610751141387,0.1344551253612571,3.84642025328423,0.15970455789009402,0.008959178170091509,0.2941596832513511
300bus.pwf,19,59,172,173,0.3302828298683331,0.14259014167117068,-0.32139341032389457,-0.13885333095590002,0.00888941954443856,0.0037368107152706553
300bus.pwf,19,60,173,175,-0.15224764048082676,0.1250893919155817,0.1559698860898933,-0.14575840438785495,0.0037222456090665323,-0.020669012472273263
300bus.pwf,19,61,126,129,0.2774595268546781,-0.567184605266603,-0.27394920869757744,0.40784077906845856,0.003510318157100678,-0.1593438261981444
300bus.pwf,19,62,157,159,-6.330661529369075,2.31912455523023,6.3715301748740965,-1.879004156820967,0.04086864550502156,0.4401203984092632
300bus.pwf,19,63,175,179,0.16006109666737828,-0.07378951796208005,-0.15736940581738007,0.04056104034906488,0.0026916908499982073,-0.03322847761301517
300bus.pwf,19,64,154,183,-0.5841212621270402,-0.11963718718193303,0.6116738040328561,0.17405596405216792,0.027552541905815908,0.054418776870234886
300bus.pwf,19,65,21,24,-2.1168021949631903,-1.1227026827658932,2.137007245062603,0.9812040595612495,0.02020505009941287,-0.1414986232046438
300bus.pwf,19,66,217,219,-1.229581006631154,-2.369509637874777,1.2329133369029888,2.4653707755731338,0.0033323302718346604,0.09586113769835691
300bus.pwf,19,67,91,94,-0.08630614416101928,0.439259295560913,0.10425869317201747,-0.4282306307237907,0.017952549010998187,0.011028664837122282
300bus.pwf,19,68,191,192,8.290992640609451,3.273718456353548,-8.049725498602577,0.5865558157564491,0.24126714200687438,3.860274272109997
300bus.pwf,19,69,217,218,0.15285593134630904,1.063658890043893,-0.15285593134630904,-1.01406563247712,0.0,0.04959325756677302
300bus.pwf,19,70,12,21,4.721834743220601,-1.001776114197633,-4.678100249334603,1.2038687524632727,0.043734493885997594,0.20209263826563983
300bus.pwf,19,71,178,179,0.2616408633326134,-0.036964711668556915,-0.2575202095673331,0.028304665448527444,0.004120653765280258,-0.008660046220029471
300bus.pwf,19,72,51,52,-0.31529232085093994,-0.05026729488391221,0.3192646912267403,0.0155032596811506,0.003972370375800338,-0.03476403520276161
300bus.pwf,19,73,158,160,-0.8612990272350529,-1.1743130298837001,0.8740043194075777,0.9823006040040858,0.012705292172524807,-0.1920124258796143
300bus.pwf,19,74,33,38,1.3327156117774601,0.23244731278819553,-1.3283978447853722,-0.2254432757294179,0.004317766992087968,0.007004037058777612
300bus.pwf,19,75,199,200,-0.028632658299775852,-0.09357288375771534,0.029258684910014324,0.08504205828298463,0.0006260266102384726,-0.008530825474730719
300bus.pwf,19,76,98,100,-0.03584670838715279,0.30423589399182305,0.037819437649226934,-0.3070504632556492,0.0019727292620741466,-0.002814569263826172
300bus.pwf,19,77,126,157,-3.6576696344203716,1.6228337118553782,3.7411454782364553,-1.0991227456078825,0.08347584381608364,0.5237109662474957
300bus.pwf,19,78,53,54,-0.39125944696897363,-0.033446423181825946,0.3947903511120945,0.005374884162345606,0.00353090414312085,-0.02807153901948034
300bus.pwf,19,79,72,531,0.14053738926193599,0.028995545772904086,-0.14000000999969525,-0.024944209928668526,0.0005373792622407336,0.00405133584423556
300bus.pwf,19,80,2,8,4.35156238204868,-0.11312022991282766,-4.250446797319293,0.50838348844879,0.10111558472938675,0.39526325853596234
300bus.pwf,19,81,48,107,-0.4465001243733938,-0.26621473412791236,0.4526302586051837,0.273564922968863,0.006130134231789874,0.007350188840950622
300bus.pwf,19,82,199,210,-0.32136735170004155,-0.026418071457957756,0.32529644488796766,0.031072100804465583,0.003929093187926114,0.004654029346507826
300bus.pwf,19,83,15,90,0.5216024580102107,-0.0065763589564478975,-0.4994021281894978,0.03595096673228801,0.02220032982071285,0.02937460777584011
300bus.pwf,19,84,45,74,2.2531567468872393,-1.8853893586247288,-2.1802552698636113,1.8871722120711432,0.07290147702362804,0.0017828534464143786
300bus.pwf,19,85,35,76,1.1170642008540765,0.4754369150243496,-1.108129901823463,-0.45654469926133223,0.008934299030613602,0.01889221576301736
300bus.pwf,19,86,117,118,-9.248208199363308,5.16409519059776,9.25970532744471,-4.973610016432741,0.011497128081401797,0.1904851741650191
300bus.pwf,19,87,39,42,4.999999999993143,1.273958862803622,-4.985869950528592,-1.5862034688882407,0.01413004946455132,-0.3122446060846187
300bus.pwf,19,88,204,205,-0.07349954836193585,-0.31169159295990034,0.07805948722465718,0.3184323721482717,0.004559938862721324,0.006740779188371349
300bus.pwf,19,89,60,62,-3.470688439036027,-0.46645089662396627,3.573620466267424,0.6634446405667749,0.10293202723139672,0.1969937439428086
300bus.pwf,19,90,137,181,-1.869639821764651,-1.2930998489491146,1.8718177219546994,1.2830374747764524,0.0021779001900483763,-0.010062374172662203
300bus.pwf,19,91,140,141,-0.4188636176737293,0.2876085622746934,0.42200902032923443,-0.4055498726775045,0.003145402655505114,-0.11794131040281108
300bus.pwf,19,92,81,194,0.18928099961876754,-0.40038406256567954,-0.18914577769809438,-0.21238366108596382,0.00013522192067316752,-0.6127677236516433
300bus.pwf,19,93,143,145,0.6613191661823702,1.2367845965507969,-0.6470152493620839,-1.2107573042731787,0.014303916820286311,0.02602729227761813
300bus.pwf,19,94,55,57,-1.0611478882324032,0.10300951729742669,1.13116883346828,-0.013377981308623332,0.07002094523587665,0.08963153598880336
300bus.pwf,19,95,78,84,-3.3799999899984567,-1.7705028342757778,3.3799999899984567,2.270048014522356,0.0,0.499545180246578
300bus.pwf,19,96,172,174,-0.3341664806632241,-0.266605019463727,0.343398885614276,0.2680865636272031,0.009232404951051931,0.0014815441634761228
300bus.pwf,19,97,126,127,1.724220350261527,-1.1907189199695678,-1.6997848395051565,1.1011973505817763,0.024435510756370515,-0.08952156938779154
300bus.pwf,19,98,57,63,0.15054154884978202,-0.09999175381197198,-0.14706430698728915,0.02657282131261826,0.0034772418624928747,-0.07341893249935372
300bus.pwf,19,99,190,240,-0.33094340602749467,1.2074787163702752,0.33094340602749467,-1.16886735633814,0.0,0.03861136003213517
300bus.pwf,19,100,123,125,0.8779324189189126,-0.5838533435645429,-0.8229854938507326,0.6065291311212307,0.05494692506818,0.022675787556687865
300bus.pwf,19,101,126,158,-3.2821242364132543,1.0351814523171476,3.376893423476446,-0.69842827093752,0.09476918706319148,0.3367531813796276
300bus.pwf,19,102,143,149,-0.42457903840761674,-0.08669412030779418,0.42662431923654515,-0.0508383420522958,0.0020452808289284086,-0.13753246236008998
300bus.pwf,19,103,196,197,-0.7892108816043808,-0.46640009371186963,0.8005792342561153,0.49462947448112715,0.011368352651734526,0.028229380769257517
300bus.pwf,19,104,163,164,-2.329587258412227,-0.7727146206941513,2.358071874141998,-2.3761248292576957,0.028484615729771345,-3.148839449951847
300bus.pwf,19,105,134,135,-0.40978657636184973,-0.09225107115183628,0.4104249418397647,-0.10739360285662447,0.0006383654779149595,-0.19964467400846075
300bus.pwf,19,106,242,247,1.0198748124930512,0.27556822249876056,-1.0089064640221879,-0.20476361585202515,0.010968348470863365,0.07080460664673541
300bus.pwf,19,107,102,104,0.42432778470248866,-0.5209233744291826,-0.40737195119860825,0.5158870831360449,0.016955833503880413,-0.005036291293137651
300bus.pwf,19,108,99,108,-0.07675759871123268,-0.19727064723221927,0.07683098894488473,0.1949993039386902,7.339023365204866e-5,-0.002271343293529071
300bus.pwf,19,109,140,182,1.6279883614714943,-0.8830093261091035,-1.6242791687615177,0.7696107005630352,0.0037091927099766053,-0.11339862554606839
300bus.pwf,19,110,173,174,-0.6939612002301732,-0.25389735125954105,0.7436032467506671,0.4078218753797518,0.049642046520493976,0.15392452412021074
300bus.pwf,19,111,198,202,0.170364079770768,0.1750944947349432,-0.1539885222609389,-0.14115960447361064,0.01637555750982911,0.03393489026133256
300bus.pwf,19,112,47,113,0.2501953801491255,-0.12247281392835316,-0.2471130229396324,0.11711129831106856,0.003082357209493125,-0.005361515617284596
300bus.pwf,19,113,134,184,-0.6209357804098663,-0.6526426772744616,0.62314895945602,0.3765580603237106,0.0022131790461537015,-0.276084616950751
300bus.pwf,19,114,77,80,0.02224168744667615,-0.14778268677931913,-0.022011084178491236,0.10952290334777545,0.0002306032681849146,-0.03825978343154368
300bus.pwf,19,115,74,562,0.5115508352693752,-0.2087174363242787,-0.5050000099998175,-0.17392713680050537,0.006550825269557636,-0.38264457312478406
300bus.pwf,19,116,220,221,0.5081222338131992,0.705263312219544,-0.506955893346855,-1.16494348628001,0.001166340466344229,-0.45968017406046613
300bus.pwf,19,117,187,188,4.928713915255508,0.7016098015233786,-4.914316508227258,-0.6628059593056469,0.014397407028249987,0.0388038422177317
300bus.pwf,19,118,112,114,-0.009065161697780398,-0.005253514349579068,0.009066490635422995,-0.0013448394986288817,1.3289376425973387e-6,-0.00659835384820795
300bus.pwf,19,119,37,49,2.5820595947101816,0.987009676001886,-2.452996748830016,-0.41589107665190456,0.1290628458801657,0.5711185993499814
300bus.pwf,19,120,118,1201,-0.7522037190995158,-0.020926148254162946,0.7522037190995158,0.38436218556584634,0.0,0.3634360373116834
300bus.pwf,19,121,146,147,-1.6865671371921591,-0.625200091836703,1.7073444043229666,0.6824701301377089,0.02077726713080752,0.057270038301005854
300bus.pwf,19,122,9003,9007,-0.06983593720304906,-0.012542115695283573,0.07010930643637472,0.013750525284746906,0.0002733692333256599,0.0012084095894633329
300bus.pwf,19,123,224,225,-2.327943474209289,2.398552355760222,2.4436667363827294,-2.1168101305934237,0.11572326217344031,0.2817422251667985
300bus.pwf,19,124,122,125,0.5313839067039845,-0.31433286924174625,-0.4875534410349386,0.4324490197329823,0.043830465669045915,0.11811615049123603
300bus.pwf,19,125,195,219,0.2782237891996504,0.44231439661816324,-0.2765972255677964,-1.012507854750074,0.0016265636318539833,-0.5701934581319108
300bus.pwf,19,126,133,169,0.9486532521121211,0.7494645232620304,-0.9457974110792846,-0.756481904997759,0.002855841032836537,-0.007017381735728634
300bus.pwf,19,127,148,179,0.3430523432538806,-0.024701838811458016,-0.3251103946149588,0.010592258017927264,0.017941948638921845,-0.014109580793530752
300bus.pwf,19,128,242,245,0.7047294306652079,0.14696445296014687,-0.7010005929089407,-0.10826639283108058,0.0037288377562672004,0.03869806012906629
300bus.pwf,19,129,90,92,-0.7476147287605531,-0.15782782994728606,0.7645568845592398,0.2222880332088718,0.01694215579868663,0.06446020326158575
300bus.pwf,19,130,190,229,-0.2618924558493112,1.4799164773159887,0.2618924558493112,-1.3532657608306877,0.0,0.12665071648530102
300bus.pwf,19,131,218,220,-0.3322665464419995,-0.6254668574678841,0.3333560894249722,0.2145362708842948,0.0010895429829727021,-0.4109305865835893
300bus.pwf,19,132,214,215,2.4574185047532358,1.193530132843086,-2.446122337980093,-1.0926401652323456,0.011296166773142602,0.10088996761074043
300bus.pwf,19,133,38,41,-0.6796215541192926,0.0351455273803741,0.6831585521406288,-0.039856336077671,0.003536998021336224,-0.004710808697296898
300bus.pwf,19,134,41,51,1.1751918579695029,0.3430157407371268,-1.1308653702595644,-0.2515842096173724,0.04432648770993852,0.09143153111975444
300bus.pwf,19,135,162,164,4.610101424677641,-0.6562136021491042,-4.552254415999662,1.2262392049673556,0.057847008677978984,0.5700256028182514
300bus.pwf,19,136,70,71,-0.843636675462937,0.015200209505503992,0.8684447087792082,0.0035849778194687043,0.02480803331627124,0.018785187324972696
300bus.pwf,19,137,9003,9044,0.04319035083266551,0.0142407130425649,-0.04304185884612752,-0.014112870660010978,0.00014849198653799078,0.0001278423825539221
300bus.pwf,19,138,33,40,0.6668356949926367,-0.06800445810203046,-0.6643037667235162,0.059054054170857045,0.0025319282691205203,-0.008950403931173412
300bus.pwf,19,139,120,1201,0.7522037190995158,0.14667128203936475,-0.7522037190995158,-0.3589043709864068,0.0,-0.21223308894704207
300bus.pwf,19,140,105,110,0.45053909648085727,-0.12274810293668065,-0.42193718316530643,0.14164420013838136,0.028601913315550842,0.018896097201700712
300bus.pwf,19,141,162,165,-5.46010143467737,0.4162156134835194,5.52280947100729,-1.03568348418462,0.06270803632991928,-0.6194678707011008
300bus.pwf,19,142,42,46,5.705468038180307,-2.0358604208250037,-5.643648037341702,1.5436553266331436,0.06182000083860473,-0.4922050941918601
300bus.pwf,19,143,37,41,-1.0451759688438496,-0.3171639939576854,1.0568915790772082,0.3386359198988563,0.011715610233358653,0.021471925941170866
300bus.pwf,19,144,103,105,0.386782414623228,-0.0771407290248516,-0.38426626647224676,0.07601738626043232,0.0025161481509812234,-0.0011233427644192773
300bus.pwf,19,145,127,168,-0.5412973371982444,-0.2753385880760688,0.5431993875180428,0.19112859308750307,0.0019020503197983984,-0.08420999498856574
300bus.pwf,19,146,126,132,-0.03506489673259421,-0.6763363554802346,0.04042228741386116,0.37391391631405124,0.005357390681266949,-0.3024224391661834
300bus.pwf,19,147,94,97,0.15029840185808835,-0.25496696734098834,-0.12907671379824553,0.24127215384047643,0.021221688059842814,-0.01369481350051191
300bus.pwf,19,148,177,178,1.596025353316884,-0.4330613975983141,-1.5215399642938927,0.6761268727626536,0.07448538902299129,0.24306547516433952
300bus.pwf,19,149,34,42,-2.325918666304796,-0.620821514755743,2.3310709637851605,0.6147261643039987,0.005152297480364609,-0.0060953504517442525
300bus.pwf,19,150,71,73,-0.6069837707830861,0.3343272417511277,0.6242936868990829,-0.32915648406120124,0.01730991611599686,0.005170757689926475
300bus.pwf,19,151,249,250,-0.22553912007293597,-0.15656207182918527,0.22999999999999932,0.17000988680411658,0.004460879927063344,0.013447814974931305
300bus.pwf,19,152,19,87,2.869863110721227,-0.684086608327641,-2.7656831504023387,1.1575271274314995,0.10417996031888821,0.47344051910385854
300bus.pwf,19,153,74,88,-0.8646165209106698,-1.1224639429725212,0.8714217775955813,1.1095807943345317,0.006805256684911498,-0.01288314863798945
300bus.pwf,19,154,178,180,-2.473790794399604,-2.345756800936884,2.5575238988527422,2.6663070550253436,0.0837331044531382,0.3205502540884595
300bus.pwf,19,155,140,146,-0.2313903358803504,-0.1580307019168689,0.23382754271044348,-0.352662504015316,0.002437206830093075,-0.5106932059321849
300bus.pwf,19,156,2,6,1.172184524670761,1.2744480565010468,-1.1695171445852381,-1.2504416357313237,0.002667380085522808,0.024006420769723036
300bus.pwf,19,157,126,169,0.5477586271646527,-0.43405631390522825,-0.5407436276057492,0.30766362433421546,0.007014999558903501,-0.1263926895710128
300bus.pwf,19,158,109,114,0.13789453005994565,-0.023247078509584768,-0.1360520004493084,-0.010176189599792579,0.0018425296106372446,-0.033423268109377346
300bus.pwf,19,159,35,77,-0.49303590723466917,-0.47945275061367554,0.49779678771839875,0.4902309359263636,0.004760880483729579,0.010778185312688038
300bus.pwf,19,160,73,76,0.2777964556754188,-0.23170124787221533,-0.2750466526003522,0.2104478249567263,0.002749803075066559,-0.02125342291548904
300bus.pwf,19,161,76,77,-0.6968234555738293,-0.4738491302465053,0.7085785099227377,0.5014558132426383,0.011755054348908445,0.027606682996133003
300bus.pwf,19,162,99,107,-0.2164780291746783,0.30007465737681854,0.22275911223869438,-0.30411777228752107,0.006281083064016091,-0.004043114910702528
300bus.pwf,19,163,196,210,-0.28876004959362805,-0.2398524821290663,0.29278293275834094,0.24010698602669567,0.004022883164712887,0.00025450389762937675
300bus.pwf,19,164,62,64,2.1184339619718147,0.3510671614277537,-2.05541713567308,-0.16789056796515772,0.06301682629873451,0.18317659346259596
300bus.pwf,19,165,139,172,0.2662359416592316,-0.1872326245319745,-0.2611163592049083,0.12402689792552754,0.005119582454323313,-0.06320572660644697
300bus.pwf,19,166,192,225,0.04972548860275583,-1.3065544016235977,-0.045504360136130684,1.3255494797234606,0.004221128466625146,0.018995078099862894
300bus.pwf,19,167,4,16,12.492398195738634,1.9209196848392929,-12.223250523074128,-0.671474975748469,0.2691476726645057,1.2494447090908238
300bus.pwf,19,168,181,187,-6.459063100253979,-0.8320850814080989,6.473286074744671,0.989229022964867,0.014222974490691875,0.15714394155676814
300bus.pwf,19,169,140,142,0.7556302564454198,-0.052356339481955755,-0.7465996664789469,-0.6426699283171218,0.00903058996647288,-0.6950262677990775
300bus.pwf,19,170,205,206,-0.016824232641209927,-0.07115297113450073,0.018313054881529692,0.07335169537020517,0.0014888222403197648,0.002198724235704441
300bus.pwf,19,171,109,113,0.015854952327953305,0.0857171303532027,-0.014886987060196307,-0.11703993482417417,0.0009679652677569983,-0.031322804470971466
300bus.pwf,19,172,219,237,-0.4611753289876126,-0.47902753227413475,0.4628728517844727,-5.4607020332741705,0.0016975227968600848,-5.939729565548305
300bus.pwf,19,173,35,72,0.4898000632273865,-0.01527502545251927,-0.4868918776917524,0.02193038914744086,0.0029081855356341,0.00665536369492159
300bus.pwf,19,174,140,147,-0.4539499522516519,-0.2871152227962866,0.4626555956770518,-0.2885371510418097,0.008705643425399867,-0.5756523738380963
300bus.pwf,19,175,3,19,1.6755885562242196,-0.5284844245762934,-1.651986631998121,0.5864007003870193,0.023601924226098747,0.05791627581072589
300bus.pwf,19,176,38,43,0.19743089136812547,-0.3337657413100661,-0.1932591209716425,0.30227333699890013,0.004171770396482977,-0.031492404311165956
300bus.pwf,19,177,58,59,-0.784446618510294,0.6406228485834725,0.7925638180517763,-0.6228333882389557,0.008117199541482378,0.017789460344516783
300bus.pwf,19,178,136,137,0.8278051677237724,-0.29779453443712833,-0.8206587297313493,-0.2936186351656117,0.007146437992423094,-0.59141316960274
300bus.pwf,19,179,133,171,7.647423756465375,1.9878082484404087,-7.6360000099977805,-1.4109090518269125,0.011423746467594142,0.5768991966134962
300bus.pwf,19,180,216,217,-0.23569929694939104,-0.34086602637295726,0.23634432399803482,0.3300861372854058,0.0006450270486437759,-0.010779889087551453
300bus.pwf,19,181,118,121,0.5166793111156851,0.3087640366331336,-0.5158492478530253,-0.1987806543307064,0.0008300632626597748,0.10998338230242721
300bus.pwf,19,182,9002,9021,0.07232162058134442,0.024175658589965097,-0.0720330332429964,-0.023798076720459336,0.0002885873383480231,0.0003775818695057609
300bus.pwf,19,183,54,55,-0.3286757216700952,0.30375855423400167,0.3355245790227882,-0.3346722288520164,0.006848857352693027,-0.030913674618014753
300bus.pwf,19,184,86,323,-0.14866572501678138,0.15720291727869876,0.14899999999999985,-0.2649967693799479,0.0003342749832184744,-0.10779385210124917
300bus.pwf,19,185,108,324,0.2508654962629008,-0.03223537737793063,-0.2470000099998185,0.012000833796274188,0.0038654862630822795,-0.02023454358165644
300bus.pwf,19,186,43,53,0.29981131450344856,-0.017803377408121865,-0.2987405630307721,0.0035941966575489953,0.0010707514726764344,-0.01420918075057287
300bus.pwf,19,187,22,23,-1.0487280887002546,-0.5072434043859568,1.1242697952773277,0.6166097294710131,0.07554170657707315,0.10936632508505628
300bus.pwf,19,188,186,188,6.5443746085365255,0.6360666112447428,-6.519309535922202,-0.46620287752169487,0.025065072614323114,0.16986373372304797
300bus.pwf,19,189,3,150,-3.1640275400962476,1.995309025202509,3.1777110374994155,-1.899524543380316,0.013683497403167877,0.0957844818221929
300bus.pwf,19,190,86,87,-1.868174514729682,0.623021865968264,1.9081260453733926,-0.5291211508928273,0.0399515306437106,0.09390071507543674
300bus.pwf,19,191,69,79,-0.04308371616335871,0.14613538469325896,0.04437392733157208,-0.16614372414425763,0.0012902111682133732,-0.02000833945099867
300bus.pwf,19,192,9002,9012,-0.042960212980177125,-0.004623556174825111,0.04309172504126237,0.005370424592056927,0.00013151206108524827,0.0007468684172318163
300bus.pwf,19,193,128,130,-0.913569872125805,-0.2812491326008788,0.9198122948553982,0.2013693077558829,0.006242422729593189,-0.0798798248449959
300bus.pwf,19,194,176,177,1.0730564684967208,-0.24567766396963048,-1.0360253633166714,0.3297904007390983,0.03703110518004937,0.08411273676946784
300bus.pwf,19,195,130,168,0.9086957597760614,0.19994171513534886,-0.9025985081388563,-0.2792695595917729,0.006097251637205092,-0.07932784445642405
300bus.pwf,19,196,98,102,0.04884669838733566,0.2557706061008508,-0.04674745312243142,-0.26538616345357136,0.002099245264904237,-0.009615557352720572
300bus.pwf,19,197,232,233,1.0426168859063467,-0.805830545633508,-1.0400000099912043,0.8804884761537504,0.0026168759151423693,0.07465793052024239
300bus.pwf,19,198,73,79,-0.25105088332794673,-0.5813522442210282,0.2584582556106711,0.585014760578078,0.007407372282724367,0.0036625163570498387
300bus.pwf,19,199,71,72,-0.2614609479959449,0.018531030539847046,0.2640854536771642,-0.0754597321943594,0.0026245056812193024,-0.05692870165451236
300bus.pwf,19,200,43,44,-0.4391152880030269,-0.37530278672347983,0.4467248043799401,0.35681709896285974,0.007609516376913206,-0.018485687760620095
300bus.pwf,19,201,248,249,0.06461025916526231,-0.01613862786359573,-0.0644608899268807,0.01656588346283901,0.00014936923838160254,0.0004272555992432814
300bus.pwf,19,202,194,219,1.3256921538123814,-0.19423279034149193,-1.3209750504360487,-0.3396511420407749,0.0047171033763326875,-0.5338839323822668
300bus.pwf,19,203,3,7,0.6917232893427027,-0.7019538423945164,-0.6917232893427027,0.7048031945907951,0.0,0.002849352196278687
300bus.pwf,19,204,152,153,-0.027095542447998777,0.6067703899765331,0.032526884912596976,-0.730415189202904,0.005431342464598199,-0.12364479922637095
300bus.pwf,19,205,138,188,-4.41881502373734,0.7160521372091051,4.425439373033589,-0.3815224977485212,0.006624349296249221,0.3345296394605839
300bus.pwf,19,206,137,188,-5.17042003374561,-1.0194171620933141,5.182186661116073,1.07454063739875,0.011766627370462857,0.05512347530543593
300bus.pwf,19,207,7,131,-2.753288809400609,1.7406294776528102,2.76364678421215,-1.6823695973478368,0.010357974811540771,0.05825988030497342
300bus.pwf,19,208,97,100,0.3200139706191747,-0.04582298165363938,-0.31801140027898533,0.04267022597293377,0.002002570340189358,-0.00315275568070561
300bus.pwf,19,209,138,181,-3.848184986262479,0.706490034718038,3.85324536829952,-0.4509407418474619,0.005060382037040956,0.25554929287057604
300bus.pwf,19,210,92,105,1.313422340259365,0.06719128468509894,-1.289107827316344,0.050148155807216876,0.024314512943020894,0.11733944049231582
300bus.pwf,19,211,92,103,0.6640207651812571,0.07044228387916984,-0.6569948405210972,-0.03741738343386647,0.007025924660159832,0.03302490044530337
300bus.pwf,19,212,104,108,0.2972628410598561,-0.4600687258528153,-0.27869649520757656,0.4402033454738538,0.018566345852279564,-0.01986538037896146
300bus.pwf,19,213,155,161,-0.714712067376885,-1.502692246643289,0.7462362209226483,1.3166263152335707,0.03152415354576332,-0.1860659314097184
300bus.pwf,19,214,226,231,-0.40285006618477487,-0.7035861400322173,0.4031491160965645,0.7162658562920993,0.00029904991178963947,0.012679716259881957
300bus.pwf,19,215,130,167,1.5355988768065572,0.5700225819457917,-1.5165734444089252,-0.5181614181016333,0.01902543239763199,0.0518611638441584
300bus.pwf,19,216,79,211,-0.06971461735360661,-0.09878701085275358,0.07070001995162399,0.04870282367326476,0.000985402598017382,-0.05008418717948882
300bus.pwf,19,217,194,664,-1.1365463761140064,0.4066434974287354,1.1399999999998534,-0.7669724530790027,0.0034536238858469126,-0.36032895565026735
300bus.pwf,19,218,23,25,1.3121971464128817,0.3149403095444704,-1.2821808771248002,-0.2735022225397351,0.030016269288081432,0.04143808700473528
300bus.pwf,19,219,9001,9005,-0.26492202620431093,-0.3700557824972589,0.26508689342952685,0.37077295492694706,0.00016486722521591446,0.0007171724296881621
300bus.pwf,19,220,128,133,0.36763292264842523,0.08961580552382062,-0.36728655115987113,-0.11992595528776948,0.00034637148855409805,-0.030310149763948857
300bus.pwf,19,221,206,208,0.013807634717950388,0.05620103311159408,-0.013114353999642845,-0.05498490318489657,0.0006932807183075429,0.0012161299266975067
300bus.pwf,19,222,133,168,-0.35906756556557806,-0.11866709432188664,0.35939912062198254,0.0882483634218199,0.0003315550564044756,-0.03041873090006675
300bus.pwf,19,223,78,79,0.7173224556017854,0.46406717484471416,-0.7131175755880901,-0.4600315316992146,0.004204880013695345,0.0040356431454995345
300bus.pwf,19,224,9002,9012,-0.042960212980177125,-0.004623556174825111,0.04309172504126237,0.005370424592056927,0.00013151206108524827,0.0007468684172318163
300bus.pwf,19,225,41,49,1.31438310628128,0.3702486420185805,-1.199284513684008,-0.050743935658373485,0.11509859259727206,0.319504706360207
300bus.pwf,19,226,9,11,0.5118473453272812,-0.09066267068697091,-0.5103445254064349,0.08347341273765001,0.0015028199208462212,-0.007189257949320904
300bus.pwf,19,227,91,97,0.9562513832937026,0.162712119270364,-0.9389945280329229,-0.14822127474231261,0.01725685526077969,0.014490844528051383
300bus.pwf,19,228,16,42,8.494911554773829,-1.2936334948564774,-8.364303468104083,1.2941403717627136,0.13060808666974566,0.0005068769062361866
300bus.pwf,19,229,46,81,3.3475648923548302,-0.5308724842403778,-3.299245916332777,0.13722485899659081,0.04831897602205304,-0.393647625243787
300bus.pwf,19,230,9003,9006,-0.08006098239907551,-0.015750730825298053,0.08078131217898017,0.01894692696689366,0.0007203297799046604,0.0031961961415956086
300bus.pwf,19,231,45,60,-3.388282348535378,-0.3011885289071937,3.470688439035305,0.46652080964173626,0.08240609049992687,0.16533228073454254
300bus.pwf,19,232,80,211,-0.25798892582122396,-0.17948320954454847,0.25985691503694847,0.1266227982854409,0.0018679892157245082,-0.052860411259107565
300bus.pwf,19,233,153,161,1.1134132596217343,1.3598981980770306,-1.0962362309224627,-1.4666178071328462,0.017177028699271624,-0.10671960905581557
300bus.pwf,19,234,26,27,0.5034537682619472,0.1898011903072588,-0.4898826912128381,-0.21586014374976856,0.013571077049109093,-0.026058953442509747
300bus.pwf,19,235,20,22,-0.23632876068837175,-0.2859055453983418,0.2387280787006252,0.2772727704017003,0.0023993180122534596,-0.008632774996641501
300bus.pwf,19,236,36,88,-1.113828356846981,-0.03948960887195016,1.1179658124423832,0.015611484502567968,0.004137455595402351,-0.023878124369382192
300bus.pwf,19,237,243,244,0.5811048939689867,0.42833408292578545,-0.5756349406363688,-0.4130440558936629,0.005469953332617905,0.015290027032122566
300bus.pwf,19,238,81,195,1.120577326677533,-0.9482666217974672,-1.1155284628631739,0.373562909224619,0.005048863814359095,-0.5747037125728482
300bus.pwf,19,239,197,211,-0.2801168090269448,0.14244998581199084,0.2814847738645023,-0.14535236376843982,0.0013679648375575226,-0.002902377956448987
300bus.pwf,19,240,77,609,0.3029958611869379,0.002885548618944467,-0.2960000099996247,-0.005946385626304396,0.006995851187313162,-0.003060837007359929
300bus.pwf,19,241,215,216,1.5366087406680045,0.7498956475855041,-1.5243007130504171,-0.7091319306896582,0.012308027617587314,0.0407637168958459
300bus.pwf,19,242,245,247,0.06625769543941498,0.04649892155604578,-0.06604450052413771,-0.045244032596400016,0.00021319491527727052,0.0012548889596457613
300bus.pwf,19,243,118,119,-9.165180929460652,-1.8130475095364886,9.165180929460652,4.276539389391921,0.0,2.4634918798554324
300bus.pwf,19,244,234,237,0.060201724146944954,-1.6980736652425499,-0.05854486748938652,1.7731845003852023,0.0016568566575584365,0.07511083514265238
300bus.pwf,19,245,37,89,-0.49799922276364456,-0.009899462565554046,0.5229782872217614,0.036754947013407285,0.024979064458116873,0.02685548444785324
300bus.pwf,19,246,15,37,1.055690336364218,0.11519329353688765,-0.9923048436996016,-0.005934549339602885,0.06338549266461646,0.10925874419728476
300bus.pwf,19,247,77,552,-0.10989450863998788,-0.041061666168197675,0.11099999999993386,0.014054997781774492,0.001105491359945976,-0.027006668386423183
300bus.pwf,19,248,119,120,1.5602877000634885,1.5811122762259515,-1.5602877000634885,-1.432454796084258,0.0,0.14865748014169355
300bus.pwf,19,249,19,21,-1.2178764787223981,0.09772505452714289,1.2206663323956652,-0.11126871656141593,0.0027898536732671175,-0.01354366203427304
300bus.pwf,19,250,190,231,5.342835861876928,-7.362045183694406,-5.327155765476043,0.48582725060224163,0.01568009640088519,-6.876217933092164
300bus.pwf,19,251,136,152,-3.517739326657777,0.013620649530198925,3.5770955324481903,-0.7485181394313747,0.05935620579041334,-0.7348974899011758
300bus.pwf,19,252,193,205,0.06300561432301442,0.1997365371964253,-0.06123525458342115,-0.19725803356099508,0.0017703597395932746,0.0024785036354302292
300bus.pwf,19,253,193,208,0.020148337413590192,0.02715027158926037,-0.02009912670638188,-0.027020068259772493,4.9210707208313664e-5,0.00013020332948787683
300bus.pwf,19,254,214,242,0.025045678566308002,-0.5765539408915451,-0.02460424315827979,0.5774653566140294,0.00044143540802821235,0.0009114157224843211
300bus.pwf,19,255,33,34,-2.3259186663044504,-0.2947560238816358,2.3259186663044504,0.6209729477426116,0.0,0.3262169238609758
300bus.pwf,19,256,120,1200,-0.9999999999999983,0.3692666022841067,0.9999999999999983,-0.34372020556016025,0.0,0.02554639672394643
300bus.pwf,19,257,89,91,-0.4951761684678599,-0.13519805873221136,0.5060547508682594,0.14636612142267358,0.010878582400399461,0.011168062690462222
300bus.pwf,19,258,129,130,-0.7695076357326157,-0.3369887397990504,0.7741238326362806,0.2456613180352357,0.004616196903664882,-0.09132742176381473
300bus.pwf,19,259,105,107,0.726834987307914,-0.003397820538012547,-0.7213893808437196,0.03060563032913624,0.005445606464194341,0.027207809791123694
300bus.pwf,19,260,175,176,-0.5787725042450463,0.20975144041591912,0.6220201219224016,-0.07528837283504822,0.0432476176773553,0.1344630675808709
300bus.pwf,19,261,62,144,-2.9506863345770036,-0.5505579641560004,2.9582116144126545,0.587595120721646,0.007525279835650878,0.037037156565645546
300bus.pwf,19,262,246,247,-0.0024194708293121103,0.06590967344144681,0.0025255529301601697,-0.06540103351760317,0.00010608210084805947,0.0005086399238436456
300bus.pwf,19,263,69,211,-0.15344637220652868,-0.03282674025372587,0.15458935520868344,0.00785465556237594,0.0011429830021547627,-0.024972084691349927
300bus.pwf,19,264,137,140,5.381618704583313,0.056240342316564385,-5.344710164572516,-0.10803668791258147,0.03690854001079735,-0.05179634559601709
300bus.pwf,19,265,33,41,-0.22363265046745817,0.07051635106033721,0.22400931119653777,-0.0957507593576809,0.00037666072907960313,-0.02523440829734369
300bus.pwf,19,266,44,54,0.1690638495071436,0.28572909431349164,-0.16611463944186855,-0.31898808184492783,0.002949210065275043,-0.03325898753143619
300bus.pwf,19,267,49,51,-1.4193129822752966,-0.056713648816794415,1.496157691110519,0.2521833084735202,0.07684470883522243,0.1954696596567258
300bus.pwf,19,268,212,215,-0.4368046042410901,-0.15883969254266844,0.43951358731227513,0.08274886275305832,0.002708983071185056,-0.07609082978961013
300bus.pwf,19,269,9012,9121,0.03835783110554433,0.013751937886121621,-0.03800000999979053,-0.012247302567276805,0.00035782110575380277,0.0015046353188448158
300bus.pwf,19,270,47,73,0.36767921382676066,0.2216913722817509,-0.35771831374041524,-0.26728347981435424,0.009960900086345426,-0.04559210753260334
300bus.pwf,19,271,140,145,0.1882954424610419,0.05395640332826938,-0.18177926632229163,-0.5471379394547973,0.006516176138750274,-0.4931815361265279
300bus.pwf,19,272,52,55,-0.92926470122653,-0.2952558772804109,0.955623299209702,0.3368347962283166,0.026358597983171972,0.04157891894790566
300bus.pwf,19,273,72,77,-0.4877309752465882,-0.16541053820932577,0.49256583276654614,0.1777271963004045,0.004834857519957936,0.012316658091078736
300bus.pwf,19,274,154,156,-0.1158787478727763,0.42256107814410104,0.1516723205191548,-0.39441710867806534,0.0357935726463785,0.0281439694660357
300bus.pwf,19,275,137,186,-4.843449984245469,-0.7206862393738657,4.857625381463672,0.8759583644834134,0.014175397218203045,0.1552721251095477
300bus.pwf,19,276,127,134,-1.0229003913273984,-0.9198813366428028,1.0307223567717387,0.7450005961786844,0.007821965444340329,-0.1748807404641184
300bus.pwf,19,277,184,185,-1.9911489694558262,-0.5425166935457149,2.000000000000005,0.43360159162633555,0.008851030544178684,-0.10891510191937931
300bus.pwf,19,278,43,48,-0.057436915528773266,0.000981553286791493,0.05775346664139168,-0.03508658270016839,0.00031655111261841284,-0.0341050294133769
300bus.pwf,19,279,244,246,0.5756349406363661,0.413042656094723,-0.5672362127413582,-0.389310865991393,0.008398727895007951,0.02373179010333004
300bus.pwf,19,280,130,132,1.2653760275007155,-0.895908254694061,-1.262071089030573,0.8995306877450676,0.00330493847014246,0.003622433051006624
300bus.pwf,19,281,234,235,0.130562897059673,0.4464039586558984,-0.13050757496806925,-0.5878559870160474,5.53220916037489e-5,-0.14145202836014897
300bus.pwf,19,282,133,137,-6.8283596675531,-2.5550422452510917,6.909812618065491,2.7873066564820776,0.0814529505123911,0.23226441123098596
300bus.pwf,19,283,40,48,0.02162624483490376,-0.13285445025421924,-0.021253352267885425,0.11140140875901092,0.00037289256701833473,-0.021453041495208325
300bus.pwf,19,284,142,143,-1.3246516171041656,-0.6795839539326056,1.3349210997590608,-0.06192678751698938,0.010269482654895246,-0.741510741449595
300bus.pwf,19,285,240,281,-0.33094340602749794,-0.3026559242642537,0.3309999999999965,0.29399490616750823,5.659397249857534e-5,-0.008661018096745465
300bus.pwf,19,286,59,61,-2.9725638280516007,-0.4371471023281904,2.988631896337515,0.5245655965985425,0.01606806828591445,0.08741849427035214
300bus.pwf,19,287,110,112,0.19158442755059243,-0.04786624324846741,-0.186934848302009,0.005277567939793247,0.004649579248583446,-0.04258867530867416
300bus.pwf,19,288,145,149,-0.5875618152368633,-0.6703018975324553,0.6033756807627584,0.5508379037035431,0.015813865525895032,-0.11946399382891215
300bus.pwf,19,289,243,245,0.17889509603119438,0.26256242449885986,-0.17617548840190914,-0.24751281663618824,0.002719607629285248,0.015049607862671621
300bus.pwf,19,290,99,110,0.5400318261820183,0.07171912429929411,-0.5276630263651227,-0.05442416385690568,0.012368799816895537,0.01729496044238843
300bus.pwf,19,291,141,146,-0.15226090085571167,-0.18198420172155674,0.15286887338553393,-0.19497243729403554,0.0006079725298222538,-0.3769566390155923
300bus.pwf,19,292,5,9,1.4845574229500622,0.38103351442520705,-1.471847355326016,-0.3392802262500345,0.01271006762404614,0.04175328817517254
300bus.pwf,19,293,189,209,0.01810967432820032,0.38496665347253983,-0.011880690591784315,-0.37562317786791627,0.006228983736416005,0.009343475604623563
300bus.pwf,19,294,9003,9006,-0.08006098239907551,-0.015750730825298053,0.08078131217898017,0.01894692696689366,0.0007203297799046604,0.0031961961415956086
300bus.pwf,19,295,221,223,3.2969558833470636,3.6649438864881034,-3.2881426189881857,-4.574383295161724,0.00881326435887786,-0.9094394086736202
300bus.pwf,19,296,191,225,6.549007349390719,2.7102821643933144,-6.498162386246411,0.39126058740947994,0.050844963144307975,3.1015427518027945
300bus.pwf,19,297,8,11,-0.2522412102404361,0.18016375715387592,0.25346918099372195,-0.21021133420451402,0.0012279707532858453,-0.030047577050638097
300bus.pwf,19,298,228,229,-2.189659135362942,1.2076367765628935,2.2056970518760766,-2.3507676010958964,0.016037916513134576,-1.143130824533003
300bus.pwf,19,299,44,47,1.2354200827496413,0.2904959135681598,-1.197874603975483,-0.21712968267092064,0.03754547877415826,0.07336623089723915
300bus.pwf,19,300,100,102,0.2801919626297652,0.26438351535987203,-0.2780827448977382,-0.2638557713745454,0.002109217732026991,0.000527743985326623
300bus.pwf,19,301,97,103,0.05051380593169322,-0.13007534234246662,-0.04978758410193887,0.11456928242736239,0.0007262218297543477,-0.015506059915104231
300bus.pwf,19,302,231,237,-4.539197443802201,-9.844456597172734,4.546447069770628,5.837129805599329,0.0072496259684271536,-4.007326791573405
300bus.pwf,19,303,198,211,0.45568617448818427,0.4074451234066664,-0.4447327653124752,-0.40913249920372075,0.010953409175709083,-0.001687375797054358
300bus.pwf,19,304,247,248,0.462425401616349,0.015408207089928377,-0.453958978133487,0.008626149292497748,0.008466423482861973,0.024034356382426125
300bus.pwf,19,305,148,178,0.55860010528888,0.01858868956124629,-0.5403101146376925,-0.029408117312658938,0.018289990651187527,-0.010819427751412647
300bus.pwf,19,306,109,110,-0.12695641447198713,0.018409688147592522,0.12801577198006997,-0.039334659753981586,0.0010593575080828366,-0.020924971606389065
300bus.pwf,19,307,7071,71,1.1599999999995927,0.8699999291705449,-1.1599999999995927,-0.7363811551676349,0.0,0.13361877400291
300bus.pwf,19,308,7023,23,1.849999999999999,1.1999994849571536,-1.849999999999999,-1.1075718225209457,0.0,0.09242766243620792
300bus.pwf,19,309,223,224,-0.9918573910116573,2.254384821453848,0.99812137872207,-1.7600103760877779,0.0062639877104126995,0.4943744453660701
300bus.pwf,19,310,143,148,1.5351271480528865,0.34304252327337764,-1.5316524585420281,-0.24388023030964817,0.0034746895108583864,0.09916229296372947
300bus.pwf,19,311,142,175,1.506251273584662,1.0772641631133135,-1.497258488512196,-0.8201938692867232,0.008992785072466036,0.2570702938265903
300bus.pwf,19,312,163,137,2.329587258412251,0.7687298227605094,-2.323262763161792,-0.5147069439416899,0.006324495250458639,0.25402287881881946
300bus.pwf,19,313,45,46,-2.2960831449887786,1.1265391365626272,2.2960831449887786,-1.0126663258575874,0.0,0.11387281070503974
300bus.pwf,19,314,145,180,3.262691642122574,3.529407234362583,-3.252523908852304,-3.159301743324764,0.010167733270269874,0.370105491037819
300bus.pwf,19,315,9003,9032,0.014071817056609415,0.005597896797736569,-0.013900009999813664,-0.004507703821010102,0.00017180705679575164,0.0010901929767264673
300bus.pwf,19,316,7011,11,2.3399999999956935,0.9999999260166703,-2.3399999999956935,-0.8876942589659436,0.0,0.11230566705072675
300bus.pwf,19,317,81,88,1.9893875900384446,1.2114782889811337,-1.9893875900384446,-1.1251378246905333,0.0,0.0863404642906005
300bus.pwf,19,318,7130,130,12.91999999998588,2.931391585902766,-12.91999999998588,-0.13178377414241282,0.0,2.799607811760353
300bus.pwf,19,319,3,4,12.492398195766782,2.5809831261485954,-12.492398195766782,-1.9208603391729469,0.0,0.6601227869756485
300bus.pwf,19,320,7024,24,4.099999999999878,1.0228330414153959,-4.099999999999878,-0.5963505516620842,0.0,0.4264824897533117
300bus.pwf,19,321,7002,2,6.230000000000003,2.799999925032595,-6.191443884881082,-2.2370806442963564,0.03855611511892132,0.5629192807362386
300bus.pwf,19,322,7,5,0.9487912376706599,0.4754337897594709,-0.9487912376706599,-0.4371786867691263,0.0,0.038255102990344625
300bus.pwf,19,323,86,102,0.5821813169235145,-1.0677150497054946,-0.5821813169235145,1.13870467156487,0.0,0.07098962185937552
300bus.pwf,19,324,201,69,-0.19653008836994126,0.11801375892681065,0.19653008836994126,-0.11327856366675526,0.0,0.0047351952600553915
300bus.pwf,19,325,10,11,-0.026188995419840065,0.38756668615113554,0.026188995419840065,-0.3757910260296846,0.0,0.011775660121450926
300bus.pwf,19,326,9004,9042,0.008178687384146007,0.0029189112685274092,-0.008100009999815794,-0.002513856059254073,7.867738433021271e-5,0.00040505520927333616
300bus.pwf,19,327,132,170,1.2216488021933738,-1.2733468773443328,-1.2184494500437293,1.4019608337600347,0.0031993521496445076,0.12861395641570184
300bus.pwf,19,328,9005,9054,-0.49999999999990086,-0.32188530236274193,0.49999999999990086,0.379999988831762,0.0,0.05811468646902007
300bus.pwf,19,329,7044,44,0.3699999999999292,0.41999996615599855,-0.3699999999999292,-0.3766171580068658,0.0,0.04338280814913276
300bus.pwf,19,330,9003,9031,0.018696115956866505,0.007981011927535898,-0.018400009999811853,-0.006102064344601427,0.0002961059570546522,0.0018789475829344713
300bus.pwf,19,331,7057,57,1.649999999999989,0.8999999517533617,-1.649999999999989,-0.7521224167548368,0.0,0.14787753499852485
300bus.pwf,19,332,16,15,3.728338968608018,1.9652136190078702,-3.7148399531235254,-1.4522510305971403,0.013499015484492727,0.5129625884107298
300bus.pwf,19,333,211,212,-1.2669124882102354,0.7325168214473643,1.272999616402271,-0.7077625001331023,0.006087128192035607,0.02475432131426203
300bus.pwf,19,334,9005,9053,0.012123785883439247,-0.11900632042799783,-0.011900010000308821,0.12432078812436506,0.0002237758831304254,0.005314467696367231
300bus.pwf,19,335,9003,9037,0.018750682960366048,0.00711904575064881,-0.01860000999981258,-0.0061125237548704785,0.00015067296055346763,0.0010065219957783311
300bus.pwf,19,336,130,131,2.763646784211372,-1.495559101489775,-2.763646784211372,1.682429302046998,0.0,0.18687020055722314
300bus.pwf,19,337,116,124,2.7855024400559536,0.4475965959745478,-2.744113733972977,-0.30910361792765695,0.04138870608297651,0.13849297804689087
300bus.pwf,19,338,9003,9034,0.015550587419078683,-0.01256162496099285,-0.015500009999813661,0.013102631463233943,5.057741926502157e-5,0.0005410065022410926
300bus.pwf,19,339,209,198,-0.36811931940801074,0.2456322649189063,0.37207385802935394,-0.21353966303031355,0.0039545386213432066,0.03209260188859275
300bus.pwf,19,340,7012,12,3.719999999999006,2.2399999227247562,-3.719999999999006,-1.7432080826787058,0.0,0.4967918400460505
300bus.pwf,19,341,121,115,1.73639700934126,0.7623693321608087,-1.73639700934126,-0.648751887791235,0.0,0.11361744436957366
300bus.pwf,19,342,7,6,0.03048286541560351,-0.815392649171006,-0.03048286541560351,0.8404953032226423,0.0,0.025102654051636364
300bus.pwf,19,343,73,74,-2.533320955505189,0.6995541060921937,2.533320955505189,-0.5559235870896373,0.0,0.1436305190025564
300bus.pwf,19,344,241,237,5.747999999999996,2.3362441052893863,-5.7320919238537105,-1.8462753599838255,0.01590807614628531,0.4899687453055608
300bus.pwf,19,345,164,155,2.1941825418578196,-0.8299204681482267,-2.187765197805912,1.0213623003127057,0.006417344051907747,0.19144183216447896
300bus.pwf,19,346,45,44,3.4312087466366537,1.060141047096451,-3.4312087466366537,-0.8463091208924567,0.0,0.21383192620399427
300bus.pwf,19,347,238,239,-5.476022837766898,-3.232727004678137,5.499999999998998,3.999996196105355,0.023977162232100113,0.7672691914272178
300bus.pwf,19,348,9003,9038,0.026144709840456002,0.010922664117135486,-0.025800009999809744,-0.008604768633841456,0.00034469984064625786,0.00231789548329403
300bus.pwf,19,349,9021,9022,0.015412136888470462,0.00575581259027695,-0.015300009999806538,-0.005044290597294649,0.00011212688866392428,0.0007115219929823002
300bus.pwf,19,350,218,219,-0.8248775322115117,0.6795348996508085,0.8258342680887744,-0.6341806526417147,0.0009567358772626378,0.04535424700909374
300bus.pwf,19,351,229,230,-3.4275895177258064,3.2440275400275436,3.449999999999994,-2.499999528524514,0.022410482274187515,0.7440280115030298
300bus.pwf,19,352,9007,9072,0.010234488787533311,0.003452650481358453,-0.010200009999815707,-0.0032223216091347134,3.447878771760393e-5,0.00023032887222373954
300bus.pwf,19,353,36,35,1.113828356851173,0.039544153683603867,-1.113828356851173,0.01934522063960742,0.0,0.058889374323211285
300bus.pwf,19,354,234,236,-5.97641427829239,-2.2452262774711165,5.999999999982906,2.999969371567628,0.02358572169051598,0.7547430940965114
300bus.pwf,19,355,7001,1,4.670000000000003,2.099999938850459,-4.670000000000003,-1.6768137753637404,0.0,0.42318616348671867
300bus.pwf,19,356,7003,3,12.099999999995735,4.199999959799797,-12.099999999995735,-2.6201370763780716,0.0,1.5798628834217254
300bus.pwf,19,357,130,150,3.177711037498607,-1.7080134529444422,-3.177711037498607,1.899585661990585,0.0,0.19157220904614292
300bus.pwf,19,358,151,170,1.557815892385464,2.8758734020761385,-1.5495505591618373,-2.5518723397099774,0.008265333223626659,0.3240010623661611
300bus.pwf,19,359,9007,9071,0.010249851966004206,0.003555801368980747,-0.01020000999981561,-0.0032206446480189535,4.9841966188596265e-5,0.0003351567209617934
300bus.pwf,19,360,153,183,1.0140598554656721,0.27051650370367275,-1.0116738140326764,-0.21404685645610178,0.0023860414329957003,0.056469647247570975
300bus.pwf,19,361,213,214,2.7199999999999975,1.043518038383545,-2.7024641933193454,-0.7769737768376386,0.017535806680652133,0.2665442615459064
300bus.pwf,19,362,9003,9035,0.016772278742164054,0.006603277945430908,-0.016600009999813037,-0.005510172637347977,0.0001722687423510172,0.0010931053080829312
300bus.pwf,19,363,200,248,-0.09934870896838523,-0.31585870698146845,0.09934870896838523,0.34274047504567484,0.0,0.02688176806420639
300bus.pwf,19,364,7049,49,-4.151594234789039,2.842170943040401e-14,4.151594234789039,0.2638556968264254,0.0,0.2638556968264538
300bus.pwf,19,365,143,144,2.9582116144143162,1.2138020747215172,-2.9582116144143162,-0.5875874502368781,0.0,0.6262146244846392
300bus.pwf,19,366,9005,9052,0.3023967464468821,0.2866451990814277,-0.3000000099997979,-0.22970979828586632,0.002396736447084158,0.05693540079556139
300bus.pwf,19,367,159,117,-9.248208199363262,3.4549711029424657,9.248208199363262,-1.9889292258084836,0.0,1.466041877133982
300bus.pwf,19,368,182,139,-0.7827208412376865,-1.6595936164355707,0.7837640483404114,1.7051469932545715,0.0010432071027248746,0.045553376819000846
300bus.pwf,19,369,189,210,-0.1250513537248229,-0.3433700704956437,0.1250513537248229,0.3804939166056114,0.0,0.03712384610996766
300bus.pwf,19,370,122,157,-1.3529545167923311,1.0370818604011853,1.3545160411328212,-0.9761824111220727,0.0015615243404900614,0.060899449279112616
300bus.pwf,19,371,3,1,0.31201445692934515,0.15995925495758812,-0.31201445692934515,-0.15441270123641715,0.0,0.005546553721170966
300bus.pwf,19,372,7017,17,3.2999999999997174,3.4999999939469575,-3.2999999999997174,-3.210265520594973,0.0,0.28973447335198443
300bus.pwf,19,373,9004,9043,0.016044233132556682,0.005396463431091903,-0.016000009999813197,-0.004916866801964349,4.422313274348583e-5,0.0004795966291275544
300bus.pwf,19,374,63,64,-2.055417135673053,-0.017360579862010894,2.055417135673053,0.1679004908617081,0.0,0.1505399109996972
300bus.pwf,19,375,141,174,1.0902518705266853,0.7575460092787138,-1.0870021323649595,-0.6758963379653564,0.0032497381617258014,0.08164967131335743
300bus.pwf,19,376,7061,61,3.9999999999999996,1.4999983966215424,-3.9999999999999996,-1.1410315503808803,0.0,0.3589668462406621
300bus.pwf,19,377,7139,139,6.999999999997884,3.2499997363691335,-6.999999999997884,-2.350897830632455,0.0,0.8991019057366785
300bus.pwf,19,378,160,124,-0.8740043194075776,-0.9817983009463318,0.8763735525111354,1.0599829933637337,0.002369233103557744,0.07818469241740189
300bus.pwf,19,379,9001,9006,0.254164254350748,0.08787201958417101,-0.2526164658021607,-0.060151437632799065,0.0015477885485873366,0.027720581951371948
300bus.pwf,19,380,9053,9533,0.011900009999682024,0.00397920104334859,-0.011900009999682024,-0.0038820844721398906,0.0,9.711657120869965e-5
300bus.pwf,19,381,155,156,0.902477255182949,-0.01866437209938804,-0.9016723305189697,0.04442196134672566,0.0008049246639793006,0.025757589247337617
300bus.pwf,19,382,202,211,-0.22601148773887675,0.011171829023266966,0.22601148773887675,-0.005171098369016747,0.0,0.006000730654250219
300bus.pwf,19,383,9003,9033,0.019222442314505483,0.008246692488028347,-0.018900009999811573,-0.0062006871910692055,0.0003224323146939108,0.0020460052969591414
300bus.pwf,19,384,7055,55,0.44999999999997203,0.249999982583323,-0.44999999999997203,-0.20499378317319028,0.0,0.04500619941013273
300bus.pwf,19,385,9005,9055,-0.07999999999998482,-0.05211484144586098,0.07999999999998482,0.059999989131267695,0.0,0.007885147685406713
300bus.pwf,19,386,15,17,2.411921865279228,-0.8469957671480579,-2.3100000100170157,1.0103859578003729,0.10192185526221209,0.16339019065231497
300bus.pwf,19,387,9002,9024,0.013598805379017762,0.0050714454915213245,-0.013500009999808002,-0.004444542204433681,9.879537920975956e-5,0.0006269032870876434
300bus.pwf,19,388,9004,9041,0.010141506040442517,0.0034957272566998408,-0.010100009999815284,-0.003217379423137554,4.149604062723272e-5,0.00027834783356228687
300bus.pwf,19,389,9023,9025,0.00451431582089689,0.0014333769012886076,-0.0045000099998145845,-0.0013487707377380586,1.4305821082305492e-5,8.460616355054906e-5
300bus.pwf,19,390,193,196,-0.08315395173654737,-0.22686403376211306,0.08315395173654737,0.24187983499990917,0.0,0.015015801237796111
300bus.pwf,19,391,7166,166,5.529999999999777,0.8416304696255494,-5.529999999999777,-0.2927300133930615,0.0,0.548900456232488
300bus.pwf,19,392,7062,62,3.9999999999999725,1.4999996605019277,-3.9999999999999725,-1.0409609936095379,0.0,0.4590386668923898
300bus.pwf,19,393,7039,39,4.999999999993478,1.9999999863356592,-4.999999999993478,-1.273814450968871,0.0,0.7261855353667883
300bus.pwf,19,394,196,2040,0.8948169694616102,0.43438445368593115,-0.894721150147646,-0.4152205908933657,9.581931396418497e-5,0.019163862792565434
300bus.pwf,19,395,227,231,-2.3500000099998117,-2.9289411347068786,2.3656680036615345,3.960731163055314,0.01566799366172278,1.0317900283484356
300bus.pwf,19,396,195,212,0.8373046736636552,-0.8158525103863655,-0.8361950121614571,0.8666195241119413,0.001109661502198156,0.050767013725575794
300bus.pwf,19,397,9001,9012,0.1250750888268362,0.033804320965229444,-0.12454128118815086,-0.024244980972017098,0.0005338076386853519,0.009559339993212346
300bus.pwf,19,398,222,237,-0.7800000099997942,0.7278341846641626,0.7813168697887355,-0.30333643615938927,0.0013168597889412492,0.42449774850477334
300bus.pwf,19,399,85,99,1.420170173428066,0.3224899525849807,-1.420170173428066,-0.24006731115473556,0.0,0.08242264143024514
300bus.pwf,19,400,9023,9026,0.004513105510687684,0.0014264206554509893,-0.004500009999814558,-0.0013489744082589082,1.3095510873126215e-5,7.744624719208115e-5
300bus.pwf,19,401,9003,9036,0.030458906878671217,0.011434841574960029,-0.030300009999808707,-0.009711656117621068,0.0001588968788625092,0.0017231854573389604
300bus.pwf,19,402,3,2,-0.10769696816639777,-0.8856177785313548,0.10769696816639777,0.9258061407762597,0.0,0.04018836224490485
300bus.pwf,19,403,204,2040,-0.8757534657586641,-0.2095783973524255,0.8947211501476261,0.41523338728120535,0.018967684388962014,0.20565498992877984
300bus.pwf,19,404,37,9001,0.1143217871299681,-0.24858285726069881,-0.11431731697322911,0.24861712846261072,4.470156738989317e-6,3.4271201911906246e-5
300bus.pwf,19,405,114,207,-0.05501450018604042,0.011545159244525038,0.05501450018604042,-0.011157134045685524,0.0,0.0003880251988395145
300bus.pwf,19,406,12,10,1.4538110145763148,0.6218230320693969,-1.4538110145763148,-0.5175141964522183,0.0,0.10430883561717863
300bus.pwf,19,407,9005,9051,0.00039257424053044856,-0.16417423584129484,-1.2600163967757538e-14,0.17349998868036462,0.0003925742405178484,0.009325752839069779
300bus.pwf,19,408,24,23,0.7964669516901896,-0.07032554229795451,-0.7964669516901896,0.10603972174272513,0.0,0.03571417944477062
300bus.pwf,19,409,87,94,0.857557105029651,-0.6283881794635384,-0.857557105029651,0.6832062388761244,0.0,0.054818059412585995
300bus.pwf,19,410,21,20,4.804236101901914,0.020141549278868354,-4.804236101901914,0.3438328233996515,0.0,0.36397437267851984
300bus.pwf,19,411,62,61,1.2586319063373919,0.577020695303915,-1.2586319063373919,-0.4835199235870711,0.0,0.0935007717168439
